  Version,9.4;

  SimulationControl,
    Yes,                     !- Do Zone Sizing Calculation
    Yes,                     !- Do System Sizing Calculation
    Yes,                     !- Do Plant Sizing Calculation
    No,                      !- Run Simulation for Sizing Periods
    Yes,                     !- Run Simulation for Weather File Run Periods
    No,                      !- Do HVAC Sizing Simulation for Sizing Periods
    1;                       !- Maximum Number of HVAC Sizing Simulation Passes

  Building,
    SF+CZ3CWH+USA_CA_San.Francisco.Intl.AP.724940+gasfurnace+slab+IECC_2018,  !- Name
    0,                       !- North Axis {deg}
    Suburbs,                 !- Terrain
    0.04,                    !- Loads Convergence Tolerance Value {W}
    0.4,                     !- Temperature Convergence Tolerance Value {deltaC}
    FullExterior,            !- Solar Distribution
    25,                      !- Maximum Number of Warmup Days
    6;                       !- Minimum Number of Warmup Days

  SurfaceConvectionAlgorithm:Inside,TARP;

  Timestep,12;

  RunPeriod,
    annual,                  !- Name
    1,                       !- Begin Month
    1,                       !- Begin Day of Month
    ,                        !- Begin Year
    12,                      !- End Month
    31,                      !- End Day of Month
    ,                        !- End Year
    ,                        !- Day of Week for Start Day
    Yes,                     !- Use Weather File Holidays and Special Days
    Yes,                     !- Use Weather File Daylight Saving Period
    No,                      !- Apply Weekend Holiday Rule
    Yes,                     !- Use Weather File Rain Indicators
    Yes;                     !- Use Weather File Snow Indicators

  Site:WaterMainsTemperature,
    CorrelationFromWeatherFile;  !- Calculation Method

  ScheduleTypeLimits,
    any number;              !- Name

  ScheduleTypeLimits,
    On/Off,                  !- Name
    0,                       !- Lower Limit Value
    1,                       !- Upper Limit Value
    Discrete;                !- Numeric Type

  ScheduleTypeLimits,
    control_type,            !- Name
    0,                       !- Lower Limit Value
    4,                       !- Upper Limit Value
    Discrete;                !- Numeric Type

  ScheduleTypeLimits,
    fraction,                !- Name
    0,                       !- Lower Limit Value
    1,                       !- Upper Limit Value
    Continuous;              !- Numeric Type

  ScheduleTypeLimits,
    Temperature,             !- Name
    -60,                     !- Lower Limit Value
    200,                     !- Upper Limit Value
    Continuous;              !- Numeric Type

  Schedule:Day:Hourly,
    OccupancyDay,            !- Name
    Fraction,                !- Schedule Type Limits Name
    1.00000,                 !- Hour 1
    1.00000,                 !- Hour 2
    1.00000,                 !- Hour 3
    1.00000,                 !- Hour 4
    1.00000,                 !- Hour 5
    1.00000,                 !- Hour 6
    1.00000,                 !- Hour 7
    0.88310,                 !- Hour 8
    0.40861,                 !- Hour 9
    0.24189,                 !- Hour 10
    0.24189,                 !- Hour 11
    0.24189,                 !- Hour 12
    0.24189,                 !- Hour 13
    0.24189,                 !- Hour 14
    0.24189,                 !- Hour 15
    0.24189,                 !- Hour 16
    0.29498,                 !- Hour 17
    0.55310,                 !- Hour 18
    0.89693,                 !- Hour 19
    0.89693,                 !- Hour 20
    0.89693,                 !- Hour 21
    1.00000,                 !- Hour 22
    1.00000,                 !- Hour 23
    1.00000;                 !- Hour 24

  Schedule:Day:Hourly,
    LightingDay,             !- Name
    Fraction,                !- Schedule Type Limits Name
    0.0625,                  !- Hour 1
    0.0625,                  !- Hour 2
    0.0625,                  !- Hour 3
    0.0625,                  !- Hour 4
    0.1875,                  !- Hour 5
    0.390625,                !- Hour 6
    0.4375,                  !- Hour 7
    0.390625,                !- Hour 8
    0.171875,                !- Hour 9
    0.1171875,               !- Hour 10
    0.1171875,               !- Hour 11
    0.1171875,               !- Hour 12
    0.1171875,               !- Hour 13
    0.1171875,               !- Hour 14
    0.1171875,               !- Hour 15
    0.203125,                !- Hour 16
    0.4375,                  !- Hour 17
    0.609375,                !- Hour 18
    0.8203125,               !- Hour 19
    0.984375,                !- Hour 20
    1,                       !- Hour 21
    0.6875,                  !- Hour 22
    0.3828125,               !- Hour 23
    0.15625;                 !- Hour 24

  Schedule:Day:Hourly,
    LightingDay_EELighting_OccSensors,  !- Name
    Fraction,                !- Schedule Type Limits Name
    0.065170403,             !- Hour 1
    0.065170403,             !- Hour 2
    0.065170403,             !- Hour 3
    0.065170403,             !- Hour 4
    0.195511208,             !- Hour 5
    0.407315016,             !- Hour 6
    0.456192818,             !- Hour 7
    0.407315016,             !- Hour 8
    0.179218607,             !- Hour 9
    0.122194505,             !- Hour 10
    0.122194505,             !- Hour 11
    0.122194505,             !- Hour 12
    0.122194505,             !- Hour 13
    0.122194505,             !- Hour 14
    0.122194505,             !- Hour 15
    0.211803808,             !- Hour 16
    0.456192818,             !- Hour 17
    0.635411425,             !- Hour 18
    0.855361533,             !- Hour 19
    0.947933128,             !- Hour 20
    0.947933128,             !- Hour 21
    0.716874428,             !- Hour 22
    0.399168715,             !- Hour 23
    0.162926006;             !- Hour 24

  Schedule:Day:Hourly,
    LightingDay_EELighting_Garage_OccSensors,  !- Name
    Fraction,                !- Schedule Type Limits Name
    0.048125,                !- Hour 1
    0.048125,                !- Hour 2
    0.048125,                !- Hour 3
    0.048125,                !- Hour 4
    0.144375,                !- Hour 5
    0.30078125,              !- Hour 6
    0.336875,                !- Hour 7
    0.30078125,              !- Hour 8
    0.13234375,              !- Hour 9
    0.090234375,             !- Hour 10
    0.090234375,             !- Hour 11
    0.090234375,             !- Hour 12
    0.090234375,             !- Hour 13
    0.090234375,             !- Hour 14
    0.090234375,             !- Hour 15
    0.15640625,              !- Hour 16
    0.336875,                !- Hour 17
    0.46921875,              !- Hour 18
    0.631640625,             !- Hour 19
    0.7,                     !- Hour 20
    0.7,                     !- Hour 21
    0.529375,                !- Hour 22
    0.294765625,             !- Hour 23
    0.1203125;               !- Hour 24

  Schedule:Day:Hourly,
    ExteriorLightingDay,     !- Name
    Fraction,                !- Schedule Type Limits Name
    1,                       !- Hour 1
    1,                       !- Hour 2
    1,                       !- Hour 3
    1,                       !- Hour 4
    1,                       !- Hour 5
    1,                       !- Hour 6
    0,                       !- Hour 7
    0,                       !- Hour 8
    0,                       !- Hour 9
    0,                       !- Hour 10
    0,                       !- Hour 11
    0,                       !- Hour 12
    0,                       !- Hour 13
    0,                       !- Hour 14
    0,                       !- Hour 15
    0,                       !- Hour 16
    0,                       !- Hour 17
    0,                       !- Hour 18
    1,                       !- Hour 19
    1,                       !- Hour 20
    1,                       !- Hour 21
    1,                       !- Hour 22
    1,                       !- Hour 23
    1;                       !- Hour 24

  Schedule:Day:Hourly,
    LightingDay_EELighting,  !- Name
    Fraction,                !- Schedule Type Limits Name
    0.06875,                 !- Hour 1
    0.06875,                 !- Hour 2
    0.06875,                 !- Hour 3
    0.06875,                 !- Hour 4
    0.20625,                 !- Hour 5
    0.4296875,               !- Hour 6
    0.48125,                 !- Hour 7
    0.4296875,               !- Hour 8
    0.1890625,               !- Hour 9
    0.12890625,              !- Hour 10
    0.12890625,              !- Hour 11
    0.12890625,              !- Hour 12
    0.12890625,              !- Hour 13
    0.12890625,              !- Hour 14
    0.12890625,              !- Hour 15
    0.2234375,               !- Hour 16
    0.48125,                 !- Hour 17
    0.6703125,               !- Hour 18
    0.90234375,              !- Hour 19
    1,                       !- Hour 20
    1,                       !- Hour 21
    0.75625,                 !- Hour 22
    0.42109375,              !- Hour 23
    0.171875;                !- Hour 24

  Schedule:Day:Hourly,
    RefrigeratorDay,         !- Name
    Fraction,                !- Schedule Type Limits Name
    0.8,                     !- Hour 1
    0.782696177062374,       !- Hour 2
    0.765593561368209,       !- Hour 3
    0.742857142857143,       !- Hour 4
    0.731388329979879,       !- Hour 5
    0.731388329979879,       !- Hour 6
    0.759959758551308,       !- Hour 7
    0.8,                     !- Hour 8
    0.817102615694165,       !- Hour 9
    0.828571428571429,       !- Hour 10
    0.8,                     !- Hour 11
    0.8,                     !- Hour 12
    0.839839034205231,       !- Hour 13
    0.839839034205231,       !- Hour 14
    0.828571428571429,       !- Hour 15
    0.839839034205231,       !- Hour 16
    0.885714285714286,       !- Hour 17
    0.971428571428572,       !- Hour 18
    1,                       !- Hour 19
    0.971428571428572,       !- Hour 20
    0.942857142857143,       !- Hour 21
    0.925553319919517,       !- Hour 22
    0.885714285714286,       !- Hour 23
    0.828571428571429;       !- Hour 24

  Schedule:Day:Hourly,
    MiscPlugLoadDay,         !- Name
    Fraction,                !- Schedule Type Limits Name
    0.607490272373541,       !- Hour 1
    0.559338521400778,       !- Hour 2
    0.552853437094682,       !- Hour 3
    0.545071335927367,       !- Hour 4
    0.524481193255512,       !- Hour 5
    0.585278858625162,       !- Hour 6
    0.676232166018158,       !- Hour 7
    0.718547341115435,       !- Hour 8
    0.607490272373541,       !- Hour 9
    0.517023346303502,       !- Hour 10
    0.529182879377432,       !- Hour 11
    0.529345006485084,       !- Hour 12
    0.520428015564202,       !- Hour 13
    0.538424124513619,       !- Hour 14
    0.568741893644617,       !- Hour 15
    0.600356679636835,       !- Hour 16
    0.71011673151751,        !- Hour 17
    0.862678339818418,       !- Hour 18
    0.936608300907912,       !- Hour 19
    0.966763942931258,       !- Hour 20
    1,                       !- Hour 21
    0.976653696498055,       !- Hour 22
    0.845168612191959,       !- Hour 23
    0.73443579766537;        !- Hour 24

  Schedule:Day:Hourly,
    CookingRangeDay,         !- Name
    Fraction,                !- Schedule Type Limits Name
    0.04715848452508,        !- Hour 1
    0.04715848452508,        !- Hour 2
    0.0235458911419424,      !- Hour 3
    0.0235458911419424,      !- Hour 4
    0.04715848452508,        !- Hour 5
    0.0707043756670224,      !- Hour 6
    0.165088046958378,       !- Hour 7
    0.283017609391676,       !- Hour 8
    0.306563500533618,       !- Hour 9
    0.320771077908218,       !- Hour 10
    0.283017609391676,       !- Hour 11
    0.330176093916756,       !- Hour 12
    0.377334578441836,       !- Hour 13
    0.306563500533618,       !- Hour 14
    0.292422625400213,       !- Hour 15
    0.377334578441836,       !- Hour 16
    0.613193703308431,       !- Hour 17
    1,                       !- Hour 18
    0.778348452508004,       !- Hour 19
    0.400947171824973,       !- Hour 20
    0.235859124866596,       !- Hour 21
    0.165088046958378,       !- Hour 22
    0.103721985058698,       !- Hour 23
    0.0707043756670224;      !- Hour 24

  Schedule:Day:Hourly,
    DishwasherWeekday,       !- Name
    Fraction,                !- Schedule Type Limits Name
    0.115858456545258,       !- Hour 1
    0.0514758745041469,      !- Hour 2
    0.0385691669671833,      !- Hour 3
    0.0257379372520738,      !- Hour 4
    0.0257379372520738,      !- Hour 5
    0.0772138117562207,      !- Hour 6
    0.154503101334295,       !- Hour 7
    0.23179239091237,        !- Hour 8
    0.437922322394519,       !- Hour 9
    0.489398196898665,       !- Hour 10
    0.425015614857555,       !- Hour 11
    0.360633032816445,       !- Hour 12
    0.309081680490443,       !- Hour 13
    0.347726325279481,       !- Hour 14
    0.28334374323837,        !- Hour 15
    0.270437035701407,       !- Hour 16
    0.28334374323837,        !- Hour 17
    0.373464262531554,       !- Hour 18
    0.656883483591778,       !- Hour 19
    0.837199999999997,       !- Hour 20
    0.682621420843852,       !- Hour 21
    0.502304904435629,       !- Hour 22
    0.334819617742518,       !- Hour 23
    0.23179239091237;        !- Hour 24

  Schedule:Day:Hourly,
    DishwasherWeekend,       !- Name
    Fraction,                !- Schedule Type Limits Name
    0.124134060584205,       !- Hour 1
    0.0551527226830148,      !- Hour 2
    0.0413241074648395,      !- Hour 3
    0.0275763613415074,      !- Hour 4
    0.0275763613415074,      !- Hour 5
    0.0827290840245222,      !- Hour 6
    0.165539037143888,       !- Hour 7
    0.248348990263252,       !- Hour 8
    0.469202488279841,       !- Hour 9
    0.524355210962856,       !- Hour 10
    0.455373873061666,       !- Hour 11
    0.386392535160476,       !- Hour 12
    0.331158943382618,       !- Hour 13
    0.3725639199423,         !- Hour 14
    0.303582582041111,       !- Hour 15
    0.289753966822935,       !- Hour 16
    0.303582582041111,       !- Hour 17
    0.400140281283808,       !- Hour 18
    0.703803732419762,       !- Hour 19
    0.897,                   !- Hour 20
    0.731380093761269,       !- Hour 21
    0.538183826181031,       !- Hour 22
    0.358735304724125,       !- Hour 23
    0.248348990263252;       !- Hour 24

  Schedule:Day:Hourly,
    DishwasherVacation,      !- Name
    Fraction,                !- Schedule Type Limits Name
    0,                       !- Hour 1
    0,                       !- Hour 2
    0,                       !- Hour 3
    0,                       !- Hour 4
    0,                       !- Hour 5
    0,                       !- Hour 6
    0,                       !- Hour 7
    0,                       !- Hour 8
    0,                       !- Hour 9
    0,                       !- Hour 10
    0,                       !- Hour 11
    0,                       !- Hour 12
    0,                       !- Hour 13
    0,                       !- Hour 14
    0,                       !- Hour 15
    0,                       !- Hour 16
    0,                       !- Hour 17
    0,                       !- Hour 18
    0,                       !- Hour 19
    0,                       !- Hour 20
    0,                       !- Hour 21
    0,                       !- Hour 22
    0,                       !- Hour 23
    0;                       !- Hour 24

  Schedule:Day:Hourly,
    ClothesWasherWeekday,    !- Name
    Fraction,                !- Schedule Type Limits Name
    0.0796474528960224,      !- Hour 1
    0.0637009071877185,      !- Hour 2
    0.0318078157711097,      !- Hour 3
    0.0318078157711097,      !- Hour 4
    0.0637009071877185,      !- Hour 5
    0.0955939986043261,      !- Hour 6
    0.191187997208654,       !- Hour 7
    0.414354361479414,       !- Hour 8
    0.62157418004187,        !- Hour 9
    0.7332,                  !- Hour 10
    0.717253454291697,       !- Hour 11
    0.637520725750175,       !- Hour 12
    0.573734542916957,       !- Hour 13
    0.510033635729239,       !- Hour 14
    0.446247452896022,       !- Hour 15
    0.414354361479414,       !- Hour 16
    0.430300907187718,       !- Hour 17
    0.414354361479414,       !- Hour 18
    0.414354361479414,       !- Hour 19
    0.414354361479414,       !- Hour 20
    0.414354361479414,       !- Hour 21
    0.398407815771109,       !- Hour 22
    0.270920725750174,       !- Hour 23
    0.143433635729239;       !- Hour 24

  Schedule:Day:Hourly,
    ClothesWasherWeekend,    !- Name
    Fraction,                !- Schedule Type Limits Name
    0.0974410327983253,      !- Hour 1
    0.0779319609211445,      !- Hour 2
    0.038913817166783,       !- Hour 3
    0.038913817166783,       !- Hour 4
    0.0779319609211445,      !- Hour 5
    0.116950104675506,       !- Hour 6
    0.233900209351012,       !- Hour 7
    0.506922889043964,       !- Hour 8
    0.760436496859734,       !- Hour 9
    0.897,                   !- Hour 10
    0.877490928122819,       !- Hour 11
    0.779945568736915,       !- Hour 12
    0.701909281228193,       !- Hour 13
    0.623977320307048,       !- Hour 14
    0.545941032798325,       !- Hour 15
    0.506922889043964,       !- Hour 16
    0.526431960921144,       !- Hour 17
    0.506922889043964,       !- Hour 18
    0.506922889043964,       !- Hour 19
    0.506922889043964,       !- Hour 20
    0.506922889043964,       !- Hour 21
    0.487413817166783,       !- Hour 22
    0.331445568736915,       !- Hour 23
    0.175477320307048;       !- Hour 24

  Schedule:Day:Hourly,
    ClothesWasherVacation,   !- Name
    Fraction,                !- Schedule Type Limits Name
    0,                       !- Hour 1
    0,                       !- Hour 2
    0,                       !- Hour 3
    0,                       !- Hour 4
    0,                       !- Hour 5
    0,                       !- Hour 6
    0,                       !- Hour 7
    0,                       !- Hour 8
    0,                       !- Hour 9
    0,                       !- Hour 10
    0,                       !- Hour 11
    0,                       !- Hour 12
    0,                       !- Hour 13
    0,                       !- Hour 14
    0,                       !- Hour 15
    0,                       !- Hour 16
    0,                       !- Hour 17
    0,                       !- Hour 18
    0,                       !- Hour 19
    0,                       !- Hour 20
    0,                       !- Hour 21
    0,                       !- Hour 22
    0,                       !- Hour 23
    0;                       !- Hour 24

  Schedule:Day:Hourly,
    dhw_profile_day,         !- Name
    fraction,                !- Schedule Type Limits Name
    0.006,                   !- Hour 1
    0.003,                   !- Hour 2
    0.001,                   !- Hour 3
    0.001,                   !- Hour 4
    0.003,                   !- Hour 5
    0.021,                   !- Hour 6
    0.075,                   !- Hour 7
    0.079,                   !- Hour 8
    0.076,                   !- Hour 9
    0.067,                   !- Hour 10
    0.061,                   !- Hour 11
    0.05,                    !- Hour 12
    0.042,                   !- Hour 13
    0.038,                   !- Hour 14
    0.033,                   !- Hour 15
    0.038,                   !- Hour 16
    0.043,                   !- Hour 17
    0.058,                   !- Hour 18
    0.068,                   !- Hour 19
    0.065,                   !- Hour 20
    0.06,                    !- Hour 21
    0.047,                   !- Hour 22
    0.041,                   !- Hour 23
    0.024;                   !- Hour 24

  Schedule:Day:Hourly,
    ClothesDryerWeekday,     !- Name
    Fraction,                !- Schedule Type Limits Name
    0.0996818663838815,      !- Hour 1
    0.0598091198303289,      !- Hour 2
    0.0398727465535526,      !- Hour 3
    0.0199363732767763,      !- Hour 4
    0.0398727465535526,      !- Hour 5
    0.0598091198303289,      !- Hour 6
    0.15949098621421,        !- Hour 7
    0.31898197242842,        !- Hour 8
    0.486427370202556,       !- Hour 9
    0.685791102970318,       !- Hour 10
    0.785472969354199,       !- Hour 11
    0.817391304347826,       !- Hour 12
    0.745600222800647,       !- Hour 13
    0.677836691410393,       !- Hour 14
    0.610073160020138,       !- Hour 15
    0.578154825026511,       !- Hour 16
    0.558218451749735,       !- Hour 17
    0.546236490032885,       !- Hour 18
    0.518345705196183,       !- Hour 19
    0.510391293636256,       !- Hour 20
    0.526300116756109,       !- Hour 21
    0.546236490032885,       !- Hour 22
    0.438600212089077,       !- Hour 23
    0.239236479321316;       !- Hour 24

  Schedule:Day:Hourly,
    ClothesDryerWeekend,     !- Name
    Fraction,                !- Schedule Type Limits Name
    0.121951219512195,       !- Hour 1
    0.0731707317073171,      !- Hour 2
    0.0487804878048781,      !- Hour 3
    0.024390243902439,       !- Hour 4
    0.0487804878048781,      !- Hour 5
    0.0731707317073171,      !- Hour 6
    0.195121951219512,       !- Hour 7
    0.390243902439024,       !- Hour 8
    0.59509731460951,        !- Hour 9
    0.8389997536339,         !- Hour 10
    0.960950973146095,       !- Hour 11
    1,                       !- Hour 12
    0.912170485341217,       !- Hour 13
    0.829268292682927,       !- Hour 14
    0.746366100024637,       !- Hour 15
    0.707317073170732,       !- Hour 16
    0.682926829268293,       !- Hour 17
    0.668268046316827,       !- Hour 18
    0.634146341463415,       !- Hour 19
    0.624414880512441,       !- Hour 20
    0.643877802414388,       !- Hour 21
    0.668268046316827,       !- Hour 22
    0.536585365853659,       !- Hour 23
    0.292682926829268;       !- Hour 24

  Schedule:Day:Hourly,
    ClothesDryerVacation,    !- Name
    Fraction,                !- Schedule Type Limits Name
    0,                       !- Hour 1
    0,                       !- Hour 2
    0,                       !- Hour 3
    0,                       !- Hour 4
    0,                       !- Hour 5
    0,                       !- Hour 6
    0,                       !- Hour 7
    0,                       !- Hour 8
    0,                       !- Hour 9
    0,                       !- Hour 10
    0,                       !- Hour 11
    0,                       !- Hour 12
    0,                       !- Hour 13
    0,                       !- Hour 14
    0,                       !- Hour 15
    0,                       !- Hour 16
    0,                       !- Hour 17
    0,                       !- Hour 18
    0,                       !- Hour 19
    0,                       !- Hour 20
    0,                       !- Hour 21
    0,                       !- Hour 22
    0,                       !- Hour 23
    0;                       !- Hour 24

  Schedule:Day:Hourly,
    SinksWeekday,            !- Name
    Fraction,                !- Schedule Type Limits Name
    0.160052687884461,       !- Hour 1
    0.0767484287242575,      !- Hour 2
    0.0575330636533838,      !- Hour 3
    0.0575330636533838,      !- Hour 4
    0.0767484287242575,      !- Hour 5
    0.204926216902916,       !- Hour 6
    0.480271095212623,       !- Hour 7
    0.704412677186414,       !- Hour 8
    0.742843407328163,       !- Hour 9
    0.697969878309708,       !- Hour 10
    0.614778650708746,       !- Hour 11
    0.563462322813587,       !- Hour 12
    0.550689756619418,       !- Hour 13
    0.512259026477668,       !- Hour 14
    0.467385497459214,       !- Hour 15
    0.486600862530089,       !- Hour 16
    0.544246957742712,       !- Hour 17
    0.736400608451458,       !- Hour 18
    0.84525,                 !- Hour 19
    0.781274137469912,       !- Hour 20
    0.640323783097085,       !- Hour 21
    0.544246957742712,       !- Hour 22
    0.44828316394758,        !- Hour 23
    0.307332809574753;       !- Hour 24

  Schedule:Day:Hourly,
    SinksWeekend,            !- Name
    Fraction,                !- Schedule Type Limits Name
    0.169851832040653,       !- Hour 1
    0.0814473121155389,      !- Hour 2
    0.0610554961219577,      !- Hour 3
    0.0610554961219577,      !- Hour 4
    0.0814473121155389,      !- Hour 5
    0.217472719978604,       !- Hour 6
    0.509675447980744,       !- Hour 7
    0.747539983952929,       !- Hour 8
    0.788323615940091,       !- Hour 9
    0.74070272800214,        !- Hour 10
    0.652418159935812,       !- Hour 11
    0.597960016047071,       !- Hour 12
    0.58440545600428,        !- Hour 13
    0.543621824017117,       !- Hour 14
    0.496000936079166,       !- Hour 15
    0.516392752072746,       !- Hour 16
    0.57756820005349,        !- Hour 17
    0.781486359989302,       !- Hour 18
    0.897,                   !- Hour 19
    0.829107247927254,       !- Hour 20
    0.679527280021396,       !- Hour 21
    0.57756820005349,        !- Hour 22
    0.47572907194437,        !- Hour 23
    0.326149104038513;       !- Hour 24

  Schedule:Day:Hourly,
    SinksVacation,           !- Name
    Fraction,                !- Schedule Type Limits Name
    0,                       !- Hour 1
    0,                       !- Hour 2
    0,                       !- Hour 3
    0,                       !- Hour 4
    0,                       !- Hour 5
    0,                       !- Hour 6
    0,                       !- Hour 7
    0,                       !- Hour 8
    0,                       !- Hour 9
    0,                       !- Hour 10
    0,                       !- Hour 11
    0,                       !- Hour 12
    0,                       !- Hour 13
    0,                       !- Hour 14
    0,                       !- Hour 15
    0,                       !- Hour 16
    0,                       !- Hour 17
    0,                       !- Hour 18
    0,                       !- Hour 19
    0,                       !- Hour 20
    0,                       !- Hour 21
    0,                       !- Hour 22
    0,                       !- Hour 23
    0;                       !- Hour 24

  Schedule:Day:Hourly,
    ShowersWeekday,          !- Name
    Fraction,                !- Schedule Type Limits Name
    0.076044361285933,       !- Hour 1
    0.0345332539547544,      !- Hour 2
    0.0242088790610646,      !- Hour 3
    0.0345332539547544,      !- Hour 4
    0.0968355162442594,      !- Hour 5
    0.366693315189659,       !- Hour 6
    0.837199999999997,       !- Hour 7
    0.830293349209049,       !- Hour 8
    0.674644497363497,       !- Hour 9
    0.529320020411635,       !- Hour 10
    0.425506650790951,       !- Hour 11
    0.335577785337642,       !- Hour 12
    0.242159993196122,       !- Hour 13
    0.207555536655894,       !- Hour 14
    0.179857730906617,       !- Hour 15
    0.186764381697567,       !- Hour 16
    0.214462187446844,       !- Hour 17
    0.27676444973635,        !- Hour 18
    0.300973328797414,       !- Hour 19
    0.300973328797414,       !- Hour 20
    0.297484402109202,       !- Hour 21
    0.290577751318252,       !- Hour 22
    0.207555536655894,       !- Hour 23
    0.148742201054601;       !- Hour 24

  Schedule:Day:Hourly,
    ShowersWeekend,          !- Name
    Fraction,                !- Schedule Type Limits Name
    0.0814761013777853,      !- Hour 1
    0.0369999149515223,      !- Hour 2
    0.0259380847082837,      !- Hour 3
    0.0369999149515223,      !- Hour 4
    0.103752338833135,       !- Hour 5
    0.392885694846062,       !- Hour 6
    0.897,                   !- Hour 7
    0.889600017009696,       !- Hour 8
    0.722833390032318,       !- Hour 9
    0.56712859329818,        !- Hour 10
    0.455899982990304,       !- Hour 11
    0.359547627147474,       !- Hour 12
    0.259457135567274,       !- Hour 13
    0.222380932131315,       !- Hour 14
    0.19270471168566,        !- Hour 15
    0.200104694675966,       !- Hour 16
    0.229780915121619,       !- Hour 17
    0.296533339003232,       !- Hour 18
    0.322471423711515,       !- Hour 19
    0.322471423711515,       !- Hour 20
    0.318733287974145,       !- Hour 21
    0.311333304983841,       !- Hour 22
    0.222380932131315,       !- Hour 23
    0.159366643987073;       !- Hour 24

  Schedule:Day:Hourly,
    ShowersVacation,         !- Name
    Fraction,                !- Schedule Type Limits Name
    0,                       !- Hour 1
    0,                       !- Hour 2
    0,                       !- Hour 3
    0,                       !- Hour 4
    0,                       !- Hour 5
    0,                       !- Hour 6
    0,                       !- Hour 7
    0,                       !- Hour 8
    0,                       !- Hour 9
    0,                       !- Hour 10
    0,                       !- Hour 11
    0,                       !- Hour 12
    0,                       !- Hour 13
    0,                       !- Hour 14
    0,                       !- Hour 15
    0,                       !- Hour 16
    0,                       !- Hour 17
    0,                       !- Hour 18
    0,                       !- Hour 19
    0,                       !- Hour 20
    0,                       !- Hour 21
    0,                       !- Hour 22
    0,                       !- Hour 23
    0;                       !- Hour 24

  Schedule:Day:Hourly,
    BathsWeekday,            !- Name
    Fraction,                !- Schedule Type Limits Name
    0.0492758944582015,      !- Hour 1
    0.0246379472291013,      !- Hour 2
    0.0246379472291013,      !- Hour 3
    0.0246379472291013,      !- Hour 4
    0.0492758944582015,      !- Hour 5
    0.123189736145504,       !- Hour 6
    0.295719195628041,       !- Hour 7
    0.369633037315344,       !- Hour 8