Version,
9.4;

SimulationControl,
Yes,
Yes,
Yes,
No,
Yes,
No,
1;

Building,
SF+CZ3CWH+USA_CA_San.Francisco.Intl.AP.724940+gasfurnace+slab+IECC_2018,
0,
Suburbs,
0.04,
0.4,
FullExterior,
25,
6;

SurfaceConvectionAlgorithm:Inside,
TARP;

Timestep,
12;

RunPeriod,
annual,
1,
1,
,
12,
31,
,
,
Yes,
Yes,
No,
Yes,
Yes;

Site:WaterMainsTemperature,
CorrelationFromWeatherFile;

ScheduleTypeLimits,
any number;

ScheduleTypeLimits,
On/Off,
0,
1,
Discrete;

ScheduleTypeLimits,
control_type,
0,
4,
Discrete;

ScheduleTypeLimits,
fraction,
0,
1,
Continuous;

ScheduleTypeLimits,
Temperature,
-60,
200,
Continuous;

Schedule:Day:Hourly,
OccupancyDay,
Fraction,
1.00000,
1.00000,
1.00000,
1.00000,
1.00000,
1.00000,
1.00000,
0.88310,
0.40861,
0.24189,
0.24189,
0.24189,
0.24189,
0.24189,
0.24189,
0.24189,
0.29498,
0.55310,
0.89693,
0.89693,
0.89693,
1.00000,
1.00000,
1.00000;

Schedule:Day:Hourly,
LightingDay,
Fraction,
0.0625,
0.0625,
0.0625,
0.0625,
0.1875,
0.390625,
0.4375,
0.390625,
0.171875,
0.1171875,
0.1171875,
0.1171875,
0.1171875,
0.1171875,
0.1171875,
0.203125,
0.4375,
0.609375,
0.8203125,
0.984375,
1,
0.6875,
0.3828125,
0.15625;

Schedule:Day:Hourly,
LightingDay_EELighting_OccSensors,
Fraction,
0.065170403,
0.065170403,
0.065170403,
0.065170403,
0.195511208,
0.407315016,
0.456192818,
0.407315016,
0.179218607,
0.122194505,
0.122194505,
0.122194505,
0.122194505,
0.122194505,
0.122194505,
0.211803808,
0.456192818,
0.635411425,
0.855361533,
0.947933128,
0.947933128,
0.716874428,
0.399168715,
0.162926006;

Schedule:Day:Hourly,
LightingDay_EELighting_Garage_OccSensors,
Fraction,
0.048125,
0.048125,
0.048125,
0.048125,
0.144375,
0.30078125,
0.336875,
0.30078125,
0.13234375,
0.090234375,
0.090234375,
0.090234375,
0.090234375,
0.090234375,
0.090234375,
0.15640625,
0.336875,
0.46921875,
0.631640625,
0.7,
0.7,
0.529375,
0.294765625,
0.1203125;

Schedule:Day:Hourly,
ExteriorLightingDay,
Fraction,
1,
1,
1,
1,
1,
1,
0,
0,
0,
0,
0,
0,
0,
0,
0,
0,
0,
0,
1,
1,
1,
1,
1,
1;

Schedule:Day:Hourly,
LightingDay_EELighting,
Fraction,
0.06875,
0.06875,
0.06875,
0.06875,
0.20625,
0.4296875,
0.48125,
0.4296875,
0.1890625,
0.12890625,
0.12890625,
0.12890625,
0.12890625,
0.12890625,
0.12890625,
0.2234375,
0.48125,
0.6703125,
0.90234375,
1,
1,
0.75625,
0.42109375,
0.171875;

Schedule:Day:Hourly,
RefrigeratorDay,
Fraction,
0.8,
0.782696177062374,
0.765593561368209,
0.742857142857143,
0.731388329979879,
0.731388329979879,
0.759959758551308,
0.8,
0.817102615694165,
0.828571428571429,
0.8,
0.8,
0.839839034205231,
0.839839034205231,
0.828571428571429,
0.839839034205231,
0.885714285714286,
0.971428571428572,
1,
0.971428571428572,
0.942857142857143,
0.925553319919517,
0.885714285714286,
0.828571428571429;

Schedule:Day:Hourly,
MiscPlugLoadDay,
Fraction,
0.607490272373541,
0.559338521400778,
0.552853437094682,
0.545071335927367,
0.524481193255512,
0.585278858625162,
0.676232166018158,
0.718547341115435,
0.607490272373541,
0.517023346303502,
0.529182879377432,
0.529345006485084,
0.520428015564202,
0.538424124513619,
0.568741893644617,
0.600356679636835,
0.71011673151751,
0.862678339818418,
0.936608300907912,
0.966763942931258,
1,
0.976653696498055,
0.845168612191959,
0.73443579766537;

Schedule:Day:Hourly,
CookingRangeDay,
Fraction,
0.04715848452508,
0.04715848452508,
0.0235458911419424,
0.0235458911419424,
0.04715848452508,
0.0707043756670224,
0.165088046958378,
0.283017609391676,
0.306563500533618,
0.320771077908218,
0.283017609391676,
0.330176093916756,
0.377334578441836,
0.306563500533618,
0.292422625400213,
0.377334578441836,
0.613193703308431,
1,
0.778348452508004,
0.400947171824973,
0.235859124866596,
0.165088046958378,
0.103721985058698,
0.0707043756670224;

Schedule:Day:Hourly,
DishwasherWeekday,
Fraction,
0.115858456545258,
0.0514758745041469,
0.0385691669671833,
0.0257379372520738,
0.0257379372520738,
0.0772138117562207,
0.154503101334295,
0.23179239091237,
0.437922322394519,
0.489398196898665,
0.425015614857555,
0.360633032816445,
0.309081680490443,
0.347726325279481,
0.28334374323837,
0.270437035701407,
0.28334374323837,
0.373464262531554,
0.656883483591778,
0.837199999999997,
0.682621420843852,
0.502304904435629,
0.334819617742518,
0.23179239091237;

Schedule:Day:Hourly,
DishwasherWeekend,
Fraction,
0.124134060584205,
0.0551527226830148,
0.0413241074648395,
0.0275763613415074,
0.0275763613415074,
0.0827290840245222,
0.165539037143888,
0.248348990263252,
0.469202488279841,
0.524355210962856,
0.455373873061666,
0.386392535160476,
0.331158943382618,
0.3725639199423,
0.303582582041111,
0.289753966822935,
0.303582582041111,
0.400140281283808,
0.703803732419762,
0.897,
0.731380093761269,
0.538183826181031,
0.358735304724125,
0.248348990263252;

Schedule:Day:Hourly,
DishwasherVacation,
Fraction,
0,
0,
0,
0,
0,
0,
0,
0,
0,
0,
0,
0,
0,
0,
0,
0,
0,
0,
0,
0,
0,
0,
0,
0;

Schedule:Day:Hourly,
ClothesWasherWeekday,
Fraction,
0.0796474528960224,
0.0637009071877185,
0.0318078157711097,
0.0318078157711097,
0.0637009071877185,
0.0955939986043261,
0.191187997208654,
0.414354361479414,
0.62157418004187,
0.7332,
0.717253454291697,
0.637520725750175,
0.573734542916957,
0.510033635729239,
0.446247452896022,
0.414354361479414,
0.430300907187718,
0.414354361479414,
0.414354361479414,
0.414354361479414,
0.414354361479414,
0.398407815771109,
0.270920725750174,
0.143433635729239;

Schedule:Day:Hourly,
ClothesWasherWeekend,
Fraction,
0.0974410327983253,
0.0779319609211445,
0.038913817166783,
0.038913817166783,
0.0779319609211445,
0.116950104675506,
0.233900209351012,
0.506922889043964,
0.760436496859734,
0.897,
0.877490928122819,
0.779945568736915,
0.701909281228193,
0.623977320307048,
0.545941032798325,
0.506922889043964,
0.526431960921144,
0.506922889043964,
0.506922889043964,
0.506922889043964,
0.506922889043964,
0.487413817166783,
0.331445568736915,
0.175477320307048;

Schedule:Day:Hourly,
ClothesWasherVacation,
Fraction,
0,
0,
0,
0,
0,
0,
0,
0,
0,
0,
0,
0,
0,
0,
0,
0,
0,
0,
0,
0,
0,
0,
0,
0;

Schedule:Day:Hourly,
dhw_profile_day,
fraction,
0.006,
0.003,
0.001,
0.001,
0.003,
0.021,
0.075,
0.079,
0.076,
0.067,
0.061,
0.05,
0.042,
0.038,
0.033,
0.038,
0.043,
0.058,
0.068,
0.065,
0.06,
0.047,
0.041,
0.024;

Schedule:Day:Hourly,
ClothesDryerWeekday,
Fraction,
0.0996818663838815,
0.0598091198303289,
0.0398727465535526,
0.0199363732767763,
0.0398727465535526,
0.0598091198303289,
0.15949098621421,
0.31898197242842,
0.486427370202556,
0.685791102970318,
0.785472969354199,
0.817391304347826,
0.745600222800647,
0.677836691410393,
0.610073160020138,
0.578154825026511,
0.558218451749735,
0.546236490032885,
0.518345705196183,
0.510391293636256,
0.526300116756109,
0.546236490032885,
0.438600212089077,
0.239236479321316;

Schedule:Day:Hourly,
ClothesDryerWeekend,
Fraction,
0.121951219512195,
0.0731707317073171,
0.0487804878048781,
0.024390243902439,
0.0487804878048781,
0.0731707317073171,
0.195121951219512,
0.390243902439024,
0.59509731460951,
0.8389997536339,
0.960950973146095,
1,
0.912170485341217,
0.829268292682927,
0.746366100024637,
0.707317073170732,
0.682926829268293,
0.668268046316827,
0.634146341463415,
0.624414880512441,
0.643877802414388,
0.668268046316827,
0.536585365853659,
0.292682926829268;

Schedule:Day:Hourly,
ClothesDryerVacation,
Fraction,
0,
0,
0,
0,
0,
0,
0,
0,
0,
0,
0,
0,
0,
0,
0,
0,
0,
0,
0,
0,
0,
0,
0,
0;

Schedule:Day:Hourly,
SinksWeekday,
Fraction,
0.160052687884461,
0.0767484287242575,
0.0575330636533838,
0.0575330636533838,
0.0767484287242575,
0.204926216902916,
0.480271095212623,
0.704412677186414,
0.742843407328163,
0.697969878309708,
0.614778650708746,
0.563462322813587,
0.550689756619418,
0.512259026477668,
0.467385497459214,
0.486600862530089,
0.544246957742712,
0.736400608451458,
0.84525,
0.781274137469912,
0.640323783097085,
0.544246957742712,
0.44828316394758,
0.307332809574753;

Schedule:Day:Hourly,
SinksWeekend,
Fraction,
0.169851832040653,
0.0814473121155389,
0.0610554961219577,
0.0610554961219577,
0.0814473121155389,
0.217472719978604,
0.509675447980744,
0.747539983952929,
0.788323615940091,
0.74070272800214,
0.652418159935812,
0.597960016047071,
0.58440545600428,
0.543621824017117,
0.496000936079166,
0.516392752072746,
0.57756820005349,
0.781486359989302,
0.897,
0.829107247927254,
0.679527280021396,
0.57756820005349,
0.47572907194437,
0.326149104038513;

Schedule:Day:Hourly,
SinksVacation,
Fraction,
0,
0,
0,
0,
0,
0,
0,
0,
0,
0,
0,
0,
0,
0,
0,
0,
0,
0,
0,
0,
0,
0,
0,
0;

Schedule:Day:Hourly,
ShowersWeekday,
Fraction,
0.076044361285933,
0.0345332539547544,
0.0242088790610646,
0.0345332539547544,
0.0968355162442594,
0.366693315189659,
0.837199999999997,
0.830293349209049,
0.674644497363497,
0.529320020411635,
0.425506650790951,
0.335577785337642,
0.242159993196122,
0.207555536655894,
0.179857730906617,
0.186764381697567,
0.214462187446844,
0.27676444973635,
0.300973328797414,
0.300973328797414,
0.297484402109202,
0.290577751318252,
0.207555536655894,
0.148742201054601;

Schedule:Day:Hourly,
ShowersWeekend,
Fraction,
0.0814761013777853,
0.0369999149515223,
0.0259380847082837,
0.0369999149515223,
0.103752338833135,
0.392885694846062,
0.897,
0.889600017009696,
0.722833390032318,
0.56712859329818,
0.455899982990304,
0.359547627147474,
0.259457135567274,
0.222380932131315,
0.19270471168566,
0.200104694675966,
0.229780915121619,
0.296533339003232,
0.322471423711515,
0.322471423711515,
0.318733287974145,
0.311333304983841,
0.222380932131315,
0.159366643987073;

Schedule:Day:Hourly,
ShowersVacation,
Fraction,
0,
0,
0,
0,
0,
0,
0,
0,
0,
0,
0,
0,
0,
0,
0,
0,
0,
0,
0,
0,
0,
0,
0,
0;

Schedule:Day:Hourly,
BathsWeekday,
Fraction,
0.0492758944582015,
0.0246379472291013,
0.0246379472291013,
0.0246379472291013,
0.0492758944582015,
0.123189736145504,
0.295719195628041,
0.369633037315344,
0.418908931773546,
0.369633037315344,
0.295719195628041,
0.221741525061908,
0.197103577832807,
0.147827683374605,
0.147827683374605,
0.147827683374605,
0.24644330116984,
0.295719195628041,
0.492886602339681,
0.640714285714285,
0.640714285714285,
0.492886602339681,
0.418908931773546,
0.24644330116984;

Schedule:Day:Hourly,
BathsWeekend,
Fraction,
0.0689862522414824,
0.0344931261207412,
0.0344931261207412,
0.0344931261207412,
0.0689862522414824,
0.172465630603706,
0.414006873879259,
0.517486252241482,
0.586472504482965,
0.517486252241482,
0.414006873879259,
0.310438135086671,
0.27594500896593,
0.206958756724447,
0.206958756724447,
0.206958756724447,
0.345020621637776,
0.414006873879259,
0.690041243275553,
0.897,
0.897,
0.690041243275553,
0.586472504482965,
0.345020621637776;

Schedule:Day:Hourly,
BathsVacation,
Fraction,
0,
0,
0,
0,
0,
0,
0,
0,
0,
0,
0,
0,
0,
0,
0,
0,
0,
0,
0,
0,
0,
0,
0,
0;

Schedule:Day:Hourly,
DHWDistDay,
Fraction,
0.142553149370226,
0.0764866759550322,
0.0516611840277747,
0.0584039294664903,
0.121469841058603,
0.366180268451559,
0.833258955739606,
0.999999987228391,
0.995483090581232,
0.916474762598139,
0.800898393293271,
0.682564390940485,
0.590066600109555,
0.522371887032053,
0.466005974303267,
0.46573704253214,
0.527514234916123,
0.637905701335668,
0.727588642310272,
0.732551127624518,
0.681468471942116,
0.610804704600985,
0.464292318119835,
0.299867724445383;

Schedule:Week:Compact,
RefrigeratorWeek,
For: AllDays,
RefrigeratorDay;

Schedule:Week:Compact,
MiscPlugLoadWeek,
For: AllDays,
MiscPlugLoadDay;

Schedule:Week:Compact,
CookingRangeWeek,
For: AllDays,
CookingRangeDay;

Schedule:Week:Compact,
DishwasherWeek,
For: Weekdays,
DishwasherWeekday,
For: CustomDay1,
DishwasherVacation,
For: AllOtherDays,
DishwasherWeekend;

Schedule:Week:Compact,
ClothesWasherWeek,
For: Weekdays,
ClothesWasherWeekday,
For: CustomDay1,
ClothesWasherVacation,
For: AllOtherDays,
ClothesWasherWeekend;

Schedule:Week:Compact,
dhw_profile_week,
AllDays,
dhw_profile_day;

Schedule:Week:Compact,
ClothesDryerWeek,
For: Weekdays,
ClothesDryerWeekday,
For: CustomDay1,
ClothesDryerVacation,
For: AllOtherDays,
ClothesDryerWeekend;

Schedule:Week:Compact,
SinksWeek,
For: Weekdays,
SinksWeekday,
For: CustomDay1,
SinksVacation,
For: AllOtherDays,
SinksWeekend;

Schedule:Week:Compact,
ShowersWeek,
For: Weekdays,
ShowersWeekday,
For: CustomDay1,
ShowersVacation,
For: AllOtherDays,
ShowersWeekend;

Schedule:Week:Compact,
BathsWeek,
For: Weekdays,
BathsWeekday,
For: CustomDay1,
BathsVacation,
For: AllOtherDays,
BathsWeekend;

Schedule:Week:Compact,
DHWDistWeek,
For: AllDays,
DHWDistDay;

Schedule:Week:Compact,
OccupancyWeek,
AllDays,
OccupancyDay;

Schedule:Week:Compact,
LightingProfileWeek,
For: AllDays,
LightingDay;

Schedule:Week:Compact,
LightingProfileWeek_EELighting,
For: AllDays,
LightingDay_EELighting;

Schedule:Week:Compact,
LightingProfileWeek_EELighting_interior_controls,
For: AllDays,
LightingDay_EELighting_OccSensors;

Schedule:Week:Compact,
LightingProfileWeek_EELighting_garage_controls,
For: AllDays,
LightingDay_EELighting_Garage_OccSensors;

Schedule:Week:Compact,
ExteriorLightingProfileWeek,
For: AllDays,
ExteriorLightingDay;

Schedule:Year,
Occupancy,
Fraction,
OccupancyWeek,
1,
1,
12,
31;

Schedule:Year,
InteriorLighting,
Fraction,
LightingProfileWeek,
1,
1,
12,
31;

Schedule:Year,
InteriorLightingHE,
Fraction,
LightingProfileWeek_EELighting,
1,
1,
12,
31;

Schedule:Year,
InteriorLightingHE_OS,
Fraction,
LightingProfileWeek_EELighting_interior_controls,
1,
1,
12,
31;

Schedule:Year,
InteriorLightingHE_VS,
Fraction,
LightingProfileWeek_EELighting_garage_controls,
1,
1,
12,
31;

Schedule:Year,
ExteriorLighting,
Fraction,
ExteriorLightingProfileWeek,
1,
1,
12,
31;

Schedule:Year,
Refrigerator,
Fraction,
RefrigeratorWeek,
1,
1,
12,
31;

Schedule:Year,
MiscPlugLoad,
Fraction,
MiscPlugLoadWeek,
1,
1,
12,
31;

Schedule:Year,
CookingRange,
Fraction,
CookingRangeWeek,
1,
1,
12,
31;

Schedule:Year,
dhw_sch,
fraction,
dhw_profile_week,
1,
1,
12,
31;

Schedule:Year,
Dishwasher,
Fraction,
DishwasherWeek,
1,
1,
12,
31;

Schedule:Year,
ClothesWasher,
Fraction,
ClothesWasherWeek,
1,
1,
12,
31;

Schedule:Year,
ClothesDryer,
Fraction,
ClothesDryerWeek,
1,
1,
12,
31;

Schedule:Year,
Sinks,
Fraction,
SinksWeek,
1,
1,
12,
31;

Schedule:Year,
Showers,
Fraction,
ShowersWeek,
1,
1,
12,
31;

Schedule:Year,
Baths,
Fraction,
BathsWeek,
1,
1,
12,
31;

Schedule:Year,
DHWDist,
Fraction,
DHWDistWeek,
1,
1,
12,
31;

Schedule:Compact,
BA_shower_sch,
any number,
Through: 12/31,
For: AllDays,
Until: 1:00,
0.00204721977777778,
Until: 2:00,
0.000930554444444445,
Until: 3:00,
0.000558332666666667,
Until: 4:00,
0.000930554444444445,
Until: 5:00,
0.00260555244444444,
Until: 6:00,
0.00967776622222222,
Until: 7:00,
0.0219610848888889,
Until: 8:00,
0.021774974,
Until: 9:00,
0.0176805344444444,
Until: 10:00,
0.0137722057777778,
Until: 11:00,
0.0111666533333333,
Until: 12:00,
0.00874721177777778,
Until: 13:00,
0.00632777022222222,
Until: 14:00,
0.00539721577777778,
Until: 15:00,
0.00483888311111111,
Until: 16:00,
0.00465277222222222,
Until: 17:00,
0.00558332666666667,
Until: 18:00,
0.00725832466666667,
Until: 19:00,
0.00781665733333333,
Until: 20:00,
0.00781665733333333,
Until: 21:00,
0.00781665733333333,
Until: 22:00,
0.00763054644444444,
Until: 23:00,
0.00539721577777778,
Until: 24:00,
0.00390832866666667;

Schedule:Compact,
BA_bath_sch,
any number,
Through: 12/31,
For: AllDays,
Until: 1:00,
0.000190544545454545,
Until: 2:00,
9.52722727272727e-05,
Until: 3:00,
9.52722727272727e-05,
Until: 4:00,
9.52722727272727e-05,
Until: 5:00,
0.000190544545454545,
Until: 6:00,
0.000452543295454545,
Until: 7:00,
0.00109563113636364,
Until: 8:00,
0.00138144795454545,
Until: 9:00,
0.0015719925,
Until: 10:00,
0.00138144795454545,
Until: 11:00,
0.00109563113636364,
Until: 12:00,
0.000833632386363636,
Until: 13:00,
0.000738360113636364,
Until: 14:00,
0.000547815568181818,
Until: 15:00,
0.000547815568181818,
Until: 16:00,
0.000547815568181818,
Until: 17:00,
0.000928904659090909,
Until: 18:00,
0.00109563113636364,
Until: 19:00,
0.00183399125,
Until: 20:00,
0.00238180681818182,
Until: 21:00,
0.00238180681818182,
Until: 22:00,
0.00183399125,
Until: 23:00,
0.0015719925,
Until: 24:00,
0.000928904659090909;

Schedule:Compact,
BA_sink_sch,
any number,
Through: 12/31,
For: AllDays,
Until: 1:00,
0.00458624035087719,
Until: 2:00,
0.0022931201754386,
Until: 3:00,
0.00163794298245614,
Until: 4:00,
0.00163794298245614,
Until: 5:00,
0.0022931201754386,
Until: 6:00,
0.0058965947368421,
Until: 7:00,
0.0137587210526316,
Until: 8:00,
0.0203104929824561,
Until: 9:00,
0.0216208473684211,
Until: 10:00,
0.0203104929824561,
Until: 11:00,
0.0176897842105263,
Until: 12:00,
0.0163794298245614,
Until: 13:00,
0.0160518412280702,
Until: 14:00,
0.0147414868421053,
Until: 15:00,
0.0140863096491228,
Until: 16:00,
0.0134311324561404,
Until: 17:00,
0.0157242526315789,
Until: 18:00,
0.0212932587719298,
Until: 19:00,
0.0245691447368421,
Until: 20:00,
0.0226036131578947,
Until: 21:00,
0.01867255,
Until: 22:00,
0.0157242526315789,
Until: 23:00,
0.0131035438596491,
Until: 24:00,
0.00884489210526316;

Schedule:Compact,
activity_sch,
any number,
Through: 12/31,
For: AllDays,
Until: 24:00,
117.28;

Schedule:Compact,
inf_sch,
any number,
Through: 12/31,
For: AllDays,
Until: 24:00,
1;

Schedule:Compact,
zone_control_type,
control_type,
Through: 12/31,
For: AllDays,
Until 24:00,
4;

Schedule:Compact,
shading_2012iecc,
fraction,
Through: 12/31,
For: AllDays,
Until 24:00,
0;

Schedule:Compact,
shading_2009iecc,
any number,
Through: 5/30,
For: AllDays,
Until 24:00,
0.85,
Through: 8/31,
For: AllDays,
Until 24:00,
0.7,
Through: 12/31,
For: AllDays,
Until: 24:00,
0.85;

Schedule:Compact,
dhw_setpt,
Temperature,
Through: 12/31,
For: AllDays,
Until 24:00,
48;

Schedule:Compact,
dhw_setpt_hpwh,
Temperature,
Through: 12/31,
For: AllDays,
Until 24:00,
44;

Schedule:Compact,
always_avail,
On/Off,
Through: 12/31,
For: AllDays,
Until: 24:00,
1;

Schedule:Compact,
always_off,
On/Off,
Through: 12/31,
For: AllDays,
Until: 24:00,
0;

Schedule:Compact,
heating_sch_HRef,
Temperature,
Through: 12/31,
For: AllDays,
Until: 24:00,
20;

Schedule:Compact,
cooling_sch_HRef,
Temperature,
Through: 12/31,
For: AllDays,
Until: 24:00,
25.55;

Schedule:Compact,
heating_sch,
Temperature,
Through: 12/31,
For: AllDays,
Until: 24:00,
22.22;

Schedule:Compact,
cooling_sch,
Temperature,
Through: 12/31,
For: AllDays,
Until: 24:00,
23.88;

Schedule:Compact,
fan_cycle,
any number,
Through: 12/31,
For: AllDays,
Until: 24:00,
0;

Schedule:Compact,
ACM Cooling Setpoint Schedule,
Temperature,
Through: 12/31,
For SummerDesignDay,
Until: 24:00,
25.5556,
For: WinterDesignDay,
Until: 24:00,
25.5556,
For: AllOtherDays,
Until: 7:00,
25.5556,
Until: 13:00,
28.3333,
Until: 14:00,
27.7778,
Until: 15:00,
27.2222,
Until: 16:00,
26.6667,
Until: 17:00,
26.1111,
Until: 24:00,
25.5556;

Schedule:Compact,
ACM Heating Setpoint Schedule,
Temperature,
Through: 12/31,
For SummerDesignDay,
Until: 24:00,
20,
For: WinterDesignDay,
Until: 24:00,
20.0,
For: AllOtherDays,
Until: 7:00,
18.3333,
Until: 23:00,
20,
Until: 24:00,
18.3333;

Schedule:Constant,
DWWaterTempSchedule,
Temperature,
48.8888888888889;

Schedule:Constant,
CWWaterTempSchedule,
Temperature,
48.8888888888889;

Schedule:Constant,
SinkSensSchedule,
Fraction,
0.687777777777778;

Schedule:Constant,
SinkLatSchedule,
Fraction,
0.312222222222222;

Schedule:Constant,
ShowerSensSchedule,
Fraction,
0.51280276816609;

Schedule:Constant,
ShowerLatSchedule,
Fraction,
0.48719723183391;

Schedule:Constant,
BathSensSchedule,
Fraction,
1;

Schedule:Constant,
BathLatSchedule,
Fraction,
0;

Schedule:Constant,
SSBWaterTempSchedule,
Temperature,
40.5555555555556;

Schedule:Constant,
WaterHeaterSP1Schedule,
Temperature,
48.8888888888889;

Schedule:Constant,
WaterHeaterSP2Schedule,
Temperature,
40.5555555555556;

Schedule:Constant,
DHWSupplySetpoint,
Temperature,
48.8888888888889;

Schedule:Constant,
boiler_setpt,
Temperature,
80;

Schedule:Constant,
Compressor Setpoint,
Temperature,
50;

Schedule:Constant,
DOAShightemp,
Temperature,
200;

Schedule:Constant,
DOASlowtemp,
Temperature,
-60;

Material,
sheathing_consol_layer,
Rough,
0.0127,
0.0940184,
685.008,
1172.332;

Material,
ceil_consol_layer,
Rough,
0.34039219657243,
0.0617176,
41.9286,
776.25126;

Material,
floor_consol_layer,
Rough,
0.1397,
0.0491038947368421,
55.074,
916.9311;

Material,
bsmtwall_consol_layer,
Rough,
0.0889,
0.0579573076923077,
120.801,
1036.25775;

Material,
crawlwall_consol_layer,
Rough,
0.0889,
0.0579573076923077,
120.801,
1036.25775;

Material,
wall_consol_layer,
Rough,
0.1397,
0.057165,
120.801,
1036.25775;

Material,
Very High Reflectivity Surface,
Smooth,
0.0005,
237,
2702,
903,
0.90,
0.05,
0.05;

Material,
GypsumBoard-5/16in,
Rough,
7.93953E-03,
0.1586200,
640,
1129.6,
0.9,
0.4,
0.1;

Material,
CopperPipe,
MediumRough,
1.90500386169072E-02,
401,
2243.000,
837.0000,
0.9000000,
0.6500000,
0.6500000;

Material,
F08 Metal surface,
Smooth,
0.0008,
45.28,
7824,
500;

Material,
Concrete_4in,
Rough,
0.1014984,
1.312098,
2242.8,
465.2;

Material,
Asphalt_shingle,
MediumRough,
6.33985285170672E-03,
0.08186,
1121.2917044623,
1255.20000949809,
,
0.75;

Material,
Wood_shingle,
MediumSmooth,
1.27000257446048E-02,
0.11388,
426.090847695673,
1631.76001234752;

Material,
Slate_shingle,
MediumSmooth,
1.27000257446048E-02,
1.44219,
1601.845292089,
1255.20000949809;

Material,
cement_stucco,
MediumSmooth,
1.905E-02,
0.721,
1865.58,
878.640006648665;

Material,
syn_stucco,
MediumSmooth,
0.3048E-02,
8.65E-02,
400,
878.640006648665;

Material,
Drywall_1/2in,
MediumSmooth,
1.27000257446048E-02,
0.16009,
800.922646044499,
1087.84000823168;

Material,
OSB_5/8in,
MediumSmooth,
0.015875032180756,
0.1163,
544.627399310259,
1213.36000918149;

Material,
OSB_7/16in,
MediumSmooth,
0.0111125,
0.1163,
544.627399310259,
1213.36000918149;

Material,
Blown_R30,
MediumRough,
0.212598430964684,
0.04119,
9.61107175253399,
836.800006332062;

Material,
Blown_R30_top,
MediumRough,
0.117348237880148,
0.04119,
9.61107175253399,
836.800006332062,
0.9,
0.7,
0.7;

Material,
Plywood_3/4in,
Rough,
0.01905,
0.1154577,
544.68,
674.54,
0.9,
0.7,
0.7;

Material,
Batt_R19,
MediumRough,
2.54000514892096E-02,
3.47522010738099E-03,
9.61107175253399,
836.800006332062,
0.9,
0.7,
0.7;

Material,
Lumber_2x4,
Rough,
0.0890016,
0.1154577,
512.64,
767.58,
0.9,
0.7,
0.7;

Material,
Carpet_n_pad,
MediumSmooth,
2.54000514892096E-02,
6.01314018580031E-02,
32.03690584178,
836.800006332062,
0.9,
0.7,
0.7;

Material,
Batt_R13,
MediumRough,
0.0889,
0.03876,
9.61107175253399,
836.800006332062,
0.9,
0.7,
0.7;

Material,
OSB_1/2in,
MediumSmooth,
1.27000257446048E-02,
0.1163,
544.627399310259,
1213.36000918149,
0.9,
0.7,
0.7;

Material,
soil_12in,
Rough,
0.3048,
1.731,
1842.3,
232.6,
0.9,
0.7,
0.7;

Material,
door_const,
Smooth,
0.0396277251435213,
0.0720096,
512.64,
767.58;

Material,
Gyp_board_1/2in,
Rough,
0.01271016,
0.1586200,
640,
1129.6,
0.9,
0.4,
0.1;

Material,
Std Wood 6inch,
MediumSmooth,
0.15,
0.12,
540.0000,
1210,
0.9000000,
0.7000000,
0.7000000;

Material,
Pipe Insulation,
VeryRough,
0.0127032520325203,
0.03317175,
91.0,
836.0,
0.9,
0.5,
0.5;

Material:NoMass,
Manf_wall_airgap,
Smooth,
0.12;

Material:NoMass,
Bldg_paper_felt,
Smooth,
1.05666113069662E-02;

Material:NoMass,
R_high,
MediumRough,
177;

Material:AirGap,
Air_4_in_vert,
0.158499169604493;

Material:AirGap,
3/4in_air_space,
0.08513;

Material:AirGap,
3/4in_Reflective_air_space,
0.246554;

WindowMaterial:SimpleGlazingSystem,
Glass,
1.817152,
0.216875,
0.88;

WindowMaterial:Glazing,
Clear Acrylic Plastic,
SpectralAverage,
,
0.003,
0.92,
0.05,
0.05,
0.92,
0.05,
0.05,
0.00,
0.90,
0.90,
0.90;

WindowMaterial:Glazing,
Diffusing Acrylic Plastic,
SpectralAverage,
,
0.0022,
0.90,
0.08,
0.08,
0.90,
0.08,
0.08,
0.00,
0.90,
0.90,
0.90;

WindowMaterial:Blind,
int_blind,
Horizontal,
0.025,
0.01875,
0.001,
45.0,
221,
0.0,
0.5,
0.5,
0.0,
0.5,
0.5,
0.0,
0.5,
0.5,
0.0,
0.5,
0.5,
0.0,
0.9,
0.9,
0.050,
0.5,
0.5,
0.5,
0.5,
,
;

Construction,
Exterior Wall,
syn_stucco,
sheathing_consol_layer,
OSB_7/16in,
wall_consol_layer,
Drywall_1/2in;

Construction,
InteriorFurnishings,
Std Wood 6inch;

Construction,
ceiling-floor-layer,
Lumber_2x4;

Construction,
Exterior Floor,
floor_consol_layer,
Plywood_3/4in,
Carpet_n_pad;

Construction,
Interior Floor,
Plywood_3/4in,
Carpet_n_pad;

Construction,
Interior Ceiling,
ceil_consol_layer,
Drywall_1/2in;

Construction,
attic floor,
Drywall_1/2in,
ceil_consol_layer;

Construction,
fndn_roof,
Carpet_n_pad,
Plywood_3/4in,
ceil_consol_layer;

Construction,
interiorwall,
Drywall_1/2in,
OSB_5/8in,
Drywall_1/2in;

Construction,
Interior Wall,
Drywall_1/2in,
Air_4_in_vert,
Drywall_1/2in;

Construction,
Exterior Roof,
Asphalt_shingle,
OSB_1/2in;

Construction,
Exterior Window,
Glass;

Construction,
Interior Window,
Glass;

Construction,
Exterior Door,
door_const;

Construction,
Interior Door,
door_const;

Construction,
Gable_end,
cement_stucco,
Bldg_paper_felt,
OSB_5/8in,
Air_4_in_vert,
Drywall_1/2in;

Construction,
crawl_floor,
R_high,
soil_12in;

Construction,
window_w_blinds,
Glass,
int_blind;

Construction,
Insulated Pipe,
Pipe Insulation,
CopperPipe;

Construction,
Plain Pipe,
CopperPipe;

Construction,
TDD Pipe,
Very High Reflectivity Surface;

Construction,
TDD Dome,
Clear Acrylic Plastic;

Construction,
TDD Diffuser,
Diffusing Acrylic Plastic;

Construction:FfactorGroundFloor,
Slab Floor Ffactor,
1.26343630645111,
110.4,
42.46;

GlobalGeometryRules,
LowerLeftCorner,
Counterclockwise,
Relative;

Zone,
living_unit1,
0.0,
0.0,
0.0,
0.0,
,
1;

Zone,
attic_unit1,
0.0,
0.0,
0.0,
0.0,
,
1;

BuildingSurface:Detailed,
ceiling_unit1,
Ceiling,
Interior Ceiling,
living_unit1,
Zone,
attic_unit1,
NoSun,
NoWind,
0.0,
4,
0,
0,
5.18392682926829,
12.1330909462833,
0,
5.18392682926829,
12.1330909462833,
9.09981820971244,
5.18392682926829,
0,
9.09981820971244,
5.18392682926829;

BuildingSurface:Detailed,
Roof_front_unit1,
Roof,
Exterior Roof,
attic_unit1,
Outdoors,
,
SunExposed,
WindExposed,
0.0,
4,
0,
0,
5.18392682926829,
12.1330909462833,
0,
5.18392682926829,
12.1330909462833,
4.54990910485622,
6.6995631975537,
0,
4.54990910485622,
6.6995631975537;

BuildingSurface:Detailed,
Roof_back_unit1,
Roof,
Exterior Roof,
attic_unit1,
Outdoors,
,
SunExposed,
WindExposed,
0.0,
4,
12.1330909462833,
9.09981820971244,
5.18392682926829,
0,
9.09981820971244,
5.18392682926829,
0,
4.54990910485622,
6.6995631975537,
12.1330909462833,
4.54990910485622,
6.6995631975537;

BuildingSurface:Detailed,
Roof_right_unit1,
Wall,
Gable_end,
attic_unit1,
Outdoors,
,
SunExposed,
WindExposed,
,
3,
12.1330909462833,
0,
5.18392682926829,
12.1330909462833,
9.09981820971244,
5.18392682926829,
12.1330909462833,
4.54990910485622,
6.6995631975537;

BuildingSurface:Detailed,
Roof_left_unit1,
Wall,
Gable_end,
attic_unit1,
Outdoors,
,
SunExposed,
WindExposed,
,
3,
0,
9.09981820971244,
5.18392682926829,
0,
0,
5.18392682926829,
0,
4.54990910485622,
6.6995631975537;

BuildingSurface:Detailed,
Wall_ldf_1.unit1,
Wall,
Exterior Wall,
living_unit1,
Outdoors,
,
SunExposed,
WindExposed,
,
4,
0,
0,
0.001,
12.1330909462833,
0,
0.001,
12.1330909462833,
0,
2.59246341463415,
0,
0,
2.59246341463415;

BuildingSurface:Detailed,
Wall_sdr_1.unit1,
Wall,
Exterior Wall,
living_unit1,
Outdoors,
,
SunExposed,
WindExposed,
,
4,
12.1330909462833,
0,
0.001,
12.1330909462833,
9.09981820971244,
0.001,
12.1330909462833,
9.09981820971244,
2.59246341463415,
12.1330909462833,
0,
2.59246341463415;

BuildingSurface:Detailed,
Wall_ldb_1.unit1,
Wall,
Exterior Wall,
living_unit1,
Outdoors,
,
SunExposed,
WindExposed,
,
4,
12.1330909462833,
9.09981820971244,
0.001,
0,
9.09981820971244,
0.001,
0,
9.09981820971244,
2.59246341463415,
12.1330909462833,
9.09981820971244,
2.59246341463415;

BuildingSurface:Detailed,
Wall_sdl_1.unit1,
Wall,
Exterior Wall,
living_unit1,
Outdoors,
,
SunExposed,
WindExposed,
,
4,
0,
9.09981820971244,
0.001,
0,
0,
0.001,
0,
0,
2.59246341463415,
0,
9.09981820971244,
2.59246341463415;

BuildingSurface:Detailed,
Wall_ldf_2.unit1,
Wall,
Exterior Wall,
living_unit1,
Outdoors,
,
SunExposed,
WindExposed,
,
4,
0,
0,
2.59246341463415,
12.1330909462833,
0,
2.59246341463415,
12.1330909462833,
0,
5.18392682926829,
0,
0,
5.18392682926829;

BuildingSurface:Detailed,
Wall_sdr_2.unit1,
Wall,
Exterior Wall,
living_unit1,
Outdoors,
,
SunExposed,
WindExposed,
,
4,
12.1330909462833,
0,
2.59246341463415,
12.1330909462833,
9.09981820971244,
2.59246341463415,
12.1330909462833,
9.09981820971244,
5.18392682926829,
12.1330909462833,
0,
5.18392682926829;

BuildingSurface:Detailed,
Wall_ldb_2.unit1,
Wall,
Exterior Wall,
living_unit1,
Outdoors,
,
SunExposed,
WindExposed,
,
4,
12.1330909462833,
9.09981820971244,
2.59246341463415,
0,
9.09981820971244,
2.59246341463415,
0,
9.09981820971244,
5.18392682926829,
12.1330909462833,
9.09981820971244,
5.18392682926829;

BuildingSurface:Detailed,
Wall_sdl_2.unit1,
Wall,
Exterior Wall,
living_unit1,
Outdoors,
,
SunExposed,
WindExposed,
,
4,
0,
9.09981820971244,
2.59246341463415,
0,
0,
2.59246341463415,
0,
0,
5.18392682926829,
0,
9.09981820971244,
5.18392682926829;

BuildingSurface:Detailed,
Floor_unit1,
Floor,
Slab Floor Ffactor,
living_unit1,
GroundFCfactorMethod,
,
NoSun,
NoWind,
0.0,
4,
0,
0,
0.001,
0,
9.09981820971244,
0.001,
12.1330909462833,
9.09981820971244,
0.001,
12.1330909462833,
0,
0.001;

Window,
Window_ldf_1.unit1,
Exterior Window,
Wall_ldf_1.unit1,
,
1,
1,
0.914634146341463,
2.70719591738945,
1.52439024390244;

Window,
Window_ldb_1.unit1,
Exterior Window,
Wall_ldb_1.unit1,
,
1,
2.74190122145512,
0.914634146341463,
2.70719591738945,
1.52439024390244;

Window,
Window_sdr_1.unit1,
Exterior Window,
Wall_sdr_1.unit1,
,
1,
1,
0.914634146341463,
2.70719591738945,
1.52439024390244;

Window,
Window_sdl_1.unit1,
Exterior Window,
Wall_sdl_1.unit1,
,
1,
1,
0.914634146341463,
2.70719591738945,
1.52439024390244;

Window,
Window_ldf_2.unit1,
Exterior Window,
Wall_ldf_2.unit1,
,
1,
1,
0.914634146341463,
2.70719591738945,
1.52439024390244;

Window,
Window_ldb_2.unit1,
Exterior Window,
Wall_ldb_2.unit1,
,
1,
2.74190122145512,
0.914634146341463,
2.70719591738945,
1.52439024390244;

Window,
Window_sdr_2.unit1,
Exterior Window,
Wall_sdr_2.unit1,
,
1,
1,
0.914634146341463,
2.70719591738945,